
                    3D
 Schrodinger Suite 2022-2.
 45 48  0  0  1  0            999 V2000
   -0.0380    2.4963   -0.0000 C   0  0  0  0  0  0
   -0.6884    1.1892   -0.0000 N   0  0  0  0  0  0
    0.0000    0.0000    0.0000 C   0  0  0  0  0  0
    1.5000    0.0000    0.0000 C   0  0  0  0  0  0
    1.9867    0.0000   -1.3765 N   0  0  0  0  0  0
    1.5167   -1.2119   -2.0626 C   0  0  0  0  0  0
    2.0759   -1.2879   -3.5100 C   0  0  0  0  0  0
    3.5458   -1.2879   -3.5103 N   0  0  0  0  0  0
    4.0157   -0.0760   -2.8242 C   0  0  0  0  0  0
    3.4565    0.0000   -1.3768 C   0  0  0  0  0  0
    4.0324   -1.2879   -4.8868 C   0  0  0  0  0  0
    3.6768   -0.2523   -5.7479 C   0  0  0  0  0  0
    4.1351   -0.2422   -7.0623 C   0  0  0  0  0  0
    4.9516   -1.2758   -7.5085 C   0  0  0  0  0  0
    5.5268   -1.2757   -9.1356 Cl  0  0  0  0  0  0
    5.3065   -2.3104   -6.6473 C   0  0  0  0  0  0
    4.8494   -2.3226   -5.3325 C   0  0  0  0  0  0
   -0.7850   -1.0506    0.0000 N   0  0  0  0  0  0
   -2.0571   -0.5323    0.0000 C   0  0  0  0  0  0
   -3.2895   -1.1954    0.0000 C   0  0  0  0  0  0
   -4.4600   -0.4332    0.0000 C   0  0  0  0  0  0
   -4.4097    0.9603    0.0000 C   0  0  0  0  0  0
   -3.1960    1.6534    0.0000 C   0  0  0  0  0  0
   -2.0300    0.8849    0.0000 C   0  0  0  0  0  0
    1.0439    2.3638   -0.0000 H   0  0  0  0  0  0
   -0.3361    3.0505   -0.8900 H   0  0  0  0  0  0
   -0.3361    3.0505    0.8900 H   0  0  0  0  0  0
    1.8633   -0.8900    0.5138 H   0  0  0  0  0  0
    1.8633    0.8900    0.5138 H   0  0  0  0  0  0
    0.4253   -1.2249   -2.0815 H   0  0  0  0  0  0
    1.8282   -2.0916   -1.4940 H   0  0  0  0  0  0
    1.7155   -0.4389   -4.0959 H   0  0  0  0  0  0
    1.7074   -2.1871   -4.0073 H   0  0  0  0  0  0
    3.7042    0.8036   -3.3928 H   0  0  0  0  0  0
    5.1071   -0.0630   -2.8053 H   0  0  0  0  0  0
    3.8169   -0.8491   -0.7909 H   0  0  0  0  0  0
    3.8251    0.8992   -0.8795 H   0  0  0  0  0  0
    3.0415    0.5486   -5.3947 H   0  0  0  0  0  0
    3.8601    0.5606   -7.7315 H   0  0  0  0  0  0
    5.9415   -3.1089   -7.0038 H   0  0  0  0  0  0
    5.1268   -3.1278   -4.6657 H   0  0  0  0  0  0
   -3.3311   -2.2749    0.0000 H   0  0  0  0  0  0
   -5.4222   -0.9294    0.0000 H   0  0  0  0  0  0
   -5.3376    1.5183    0.0000 H   0  0  0  0  0  0
   -3.1683    2.7345    0.0000 H   0  0  0  0  0  0
  1  2  1  0  0  0
  1 25  1  0  0  0
  1 26  1  0  0  0
  1 27  1  0  0  0
  2 24  1  0  0  0
  2  3  1  0  0  0
  3  4  1  0  0  0
  3 18  2  0  0  0
  4  5  1  0  0  0
  4 28  1  0  0  0
  4 29  1  0  0  0
  5 10  1  0  0  0
  5  6  1  0  0  0
  6  7  1  0  0  0
  6 30  1  0  0  0
  6 31  1  0  0  0
  7  8  1  0  0  0
  7 32  1  0  0  0
  7 33  1  0  0  0
  8  9  1  0  0  0
  8 11  1  0  0  0
  9 10  1  0  0  0
  9 34  1  0  0  0
  9 35  1  0  0  0
 10 36  1  0  0  0
 10 37  1  0  0  0
 11 17  1  0  0  0
 11 12  2  0  0  0
 12 13  1  0  0  0
 12 38  1  0  0  0
 13 14  2  0  0  0
 13 39  1  0  0  0
 14 15  1  0  0  0
 14 16  1  0  0  0
 16 17  2  0  0  0
 16 40  1  0  0  0
 17 41  1  0  0  0
 18 19  1  0  0  0
 19 24  2  0  0  0
 19 20  1  0  0  0
 20 21  2  0  0  0
 20 42  1  0  0  0
 21 22  1  0  0  0
 21 43  1  0  0  0
 22 23  2  0  0  0
 22 44  1  0  0  0
 23 24  1  0  0  0
 23 45  1  0  0  0
M  END
> <r_f3d_energy>
0

> <i_f3d_flags>
0

$$$$
