
                    3D
 Schrodinger Suite 2022-2.
 45 48  0  0  1  0            999 V2000
   -0.0380    2.4963   -0.0000 C   0  0  0  0  0  0
   -0.6884    1.1892   -0.0000 N   0  0  0  0  0  0
    0.0000    0.0000    0.0000 C   0  0  0  0  0  0
    1.5000    0.0000    0.0000 C   0  0  0  0  0  0
    1.9867    0.0000   -1.3765 N   0  0  0  0  0  0
    1.5167   -1.2119   -2.0626 C   0  0  0  0  0  0
    2.0759   -1.2879   -3.5100 C   0  0  0  0  0  0
    3.5458   -1.2879   -3.5103 N   0  0  0  0  0  0
    4.0157   -0.0760   -2.8242 C   0  0  0  0  0  0
    3.4565    0.0000   -1.3768 C   0  0  0  0  0  0
    4.0324   -1.2879   -4.8868 C   0  0  0  0  0  0
    3.6768   -0.2523   -5.7479 C   0  0  0  0  0  0
    4.1351   -0.2422   -7.0623 C   0  0  0  0  0  0
    4.9516   -1.2758   -7.5085 C   0  0  0  0  0  0
    5.5268   -1.2757   -9.1356 Cl  0  0  0  0  0  0
    5.3065   -2.3104   -6.6473 C   0  0  0  0  0  0
    4.8494   -2.3226   -5.3325 C   0  0  0  0  0  0
   -0.7850   -1.0506    0.0000 N   0  0  0  0  0  0
   -2.0571   -0.5323    0.0000 C   0  0  0  0  0  0
   -3.2895   -1.1954    0.0000 C   0  0  0  0  0  0
   -4.4600   -0.4332    0.0000 C   0  0  0  0  0  0
   -4.4097    0.9603    0.0000 C   0  0  0  0  0  0
   -3.1960    1.6534    0.0000 C   0  0  0  0  0  0
   -2.0300    0.8849    0.0000 C   0  0  0  0  0  0
    1.0439    2.3638   -0.0000 H   0  0  0  0  0  0
   -0.3361    3.0505   -0.8900 H   0  0  0  0  0  0
   -0.3361    3.0505    0.8900 H   0  0  0  0  0  0
    1.8633   -0.8900    0.5138 H   0  0  0  0  0  0
    1.8633    0.8900    0.5138 H   0  0  0  0  0  0
    0.4253   -1.2249   -2.0815 H   0  0  0  0  0  0
    1.8282   -2.0916   -1.4940 H   0  0  0  0  0  0
    1.7155   -0.4389   -4.0959 H   0  0  0  0  0  0
    1.7074   -2.1871   -4.0073 H   0  0  0  0  0  0
    3.7042    0.8036   -3.3928 H   0  0  0  0  0  0
    5.1071   -0.0630   -2.8053 H   0  0  0  0  0  0
    3.8169   -0.8491   -0.7909 H   0  0  0  0  0  0
    3.8251    0.8992   -0.8795 H   0  0  0  0  0  0
    3.0415    0.5486   -5.3947 H   0  0  0  0  0  0
    3.8601    0.5606   -7.7315 H   0  0  0  0  0  0
    5.9415   -3.1089   -7.0038 H   0  0  0  0  0  0
    5.1268   -3.1278   -4.6657 H   0  0  0  0  0  0
   -3.3311   -2.2749    0.0000 H   0  0  0  0  0  0
   -5.4222   -0.9294    0.0000 H   0  0  0  0  0  0
   -5.3376    1.5183    0.0000 H   0  0  0  0  0  0
   -3.1683    2.7345    0.0000 H   0  0  0  0  0  0
  1  2  1  0  0  0
  1 25  1  0  0  0
  1 26  1  0  0  0
  1 27  1  0  0  0
  2 24  1  0  0  0
  2  3  1  0  0  0
  3  4  1  0  0  0
  3 18  2  0  0  0
  4  5  1  0  0  0
  4 28  1  0  0  0
  4 29  1  0  0  0
  5 10  1  0  0  0
  5  6  1  0  0  0
  6  7  1  0  0  0
  6 30  1  0  0  0
  6 31  1  0  0  0
  7  8  1  0  0  0
  7 32  1  0  0  0
  7 33  1  0  0  0
  8  9  1  0  0  0
  8 11  1  0  0  0
  9 10  1  0  0  0
  9 34  1  0  0  0
  9 35  1  0  0  0
 10 36  1  0  0  0
 10 37  1  0  0  0
 11 17  1  0  0  0
 11 12  2  0  0  0
 12 13  1  0  0  0
 12 38  1  0  0  0
 13 14  2  0  0  0
 13 39  1  0  0  0
 14 15  1  0  0  0
 14 16  1  0  0  0
 16 17  2  0  0  0
 16 40  1  0  0  0
 17 41  1  0  0  0
 18 19  1  0  0  0
 19 24  2  0  0  0
 19 20  1  0  0  0
 20 21  2  0  0  0
 20 42  1  0  0  0
 21 22  1  0  0  0
 21 43  1  0  0  0
 22 23  2  0  0  0
 22 44  1  0  0  0
 23 24  1  0  0  0
 23 45  1  0  0  0
M  END
> <r_f3d_energy>
0

> <i_f3d_flags>
0

$$$$

                    3D
 Schrodinger Suite 2022-2.
 59 61  0  0  1  0            999 V2000
   -0.7964   -3.5292   -0.0000 C   0  0  0  0  0  0
   -0.0049   -2.3987   -0.0000 O   0  0  0  0  0  0
   -0.6949   -1.2036   -0.0000 C   0  0  0  0  0  0
   -2.0847   -1.2036   -0.0000 C   0  0  0  0  0  0
   -2.7797   -0.0000    0.0000 C   0  0  0  0  0  0
   -4.1597    0.0000    0.0000 O   0  0  0  0  0  0
   -4.7429   -1.2507   -0.0000 C   0  0  0  0  0  0
   -2.0847    1.2036    0.0000 C   0  0  0  0  0  0
   -0.6949    1.2036   -0.0000 C   0  0  0  0  0  0
    0.0000    0.0000    0.0000 C   0  0  0  0  0  0
    1.4600    0.0000    0.0000 N   0  0  0  0  0  0
    2.2343    1.0200   -0.3713 C   0  0  0  0  0  0
    1.7824    2.0925   -0.7616 O   0  0  0  0  0  0
    3.6918    0.6869   -0.2500 C   0  0  0  0  0  0
    4.6118    2.1692    0.1034 S   0  0  0  0  0  0
    5.5812    1.9984   -1.3796 C   0  0  0  0  0  0
    6.5571    3.1337   -1.4726 C   0  0  0  0  0  0
    6.6417    3.9723   -2.3627 O   0  0  0  0  0  0
    7.3756    3.1123   -0.3902 O   0  0  0  0  0  0
   -2.9747    2.7452    0.0000 S   0  0  0  0  0  0
   -4.1428    2.5836    0.8728 O   0  0  0  0  0  0
   -1.9996    3.8209    0.2097 O   0  0  0  0  0  0
   -3.5531    2.8700   -1.6363 N   0  0  0  0  0  0
   -2.5320    2.8932   -2.6916 C   0  0  2  0  0  0
   -1.4780    3.9011   -2.3406 C   0  0  0  0  0  0
   -3.1315    3.2312   -4.0702 C   0  0  0  0  0  0
   -4.3828    2.4038   -4.3934 C   0  0  0  0  0  0
   -5.3738    2.5108   -3.2427 C   0  0  0  0  0  0
   -6.7445    2.3652   -3.4556 C   0  0  0  0  0  0
   -7.6467    2.4405   -2.4025 C   0  0  0  0  0  0
   -7.1885    2.6571   -1.1116 C   0  0  0  0  0  0
   -5.8274    2.7995   -0.8792 C   0  0  0  0  0  0
   -4.9232    2.7338   -1.9317 C   0  0  0  0  0  0
   -0.1630   -4.4162   -0.0000 H   0  0  0  0  0  0
   -1.4258   -3.5321    0.8900 H   0  0  0  0  0  0
   -1.4258   -3.5321   -0.8900 H   0  0  0  0  0  0
   -2.6258   -2.1407   -0.0000 H   0  0  0  0  0  0
   -5.8278   -1.1457   -0.0000 H   0  0  0  0  0  0
   -4.4307   -1.7972   -0.8900 H   0  0  0  0  0  0
   -4.4307   -1.7972    0.8900 H   0  0  0  0  0  0
   -0.1539    2.1407    0.0000 H   0  0  0  0  0  0
    1.7888   -0.8974    0.3266 H   0  0  0  0  0  0
    4.0448    0.2547   -1.1863 H   0  0  0  0  0  0
    3.8345   -0.0306    0.5580 H   0  0  0  0  0  0
    4.9225    2.0134   -2.2480 H   0  0  0  0  0  0
    6.1243    1.0537   -1.3519 H   0  0  0  0  0  0
    7.9838    3.8302   -0.4606 H   0  0  0  0  0  0
   -2.0376    1.9202   -2.7203 H   0  0  0  0  0  0
   -0.7188    3.9202   -3.1225 H   0  0  0  0  0  0
   -1.9334    4.8874   -2.2522 H   0  0  0  0  0  0
   -1.0157    3.6280   -1.3920 H   0  0  0  0  0  0
   -2.3773    3.0910   -4.8459 H   0  0  0  0  0  0
   -3.3875    4.2923   -4.0945 H   0  0  0  0  0  0
   -4.1175    1.3562   -4.5449 H   0  0  0  0  0  0
   -4.8279    2.7564   -5.3255 H   0  0  0  0  0  0
   -7.1180    2.1876   -4.4555 H   0  0  0  0  0  0
   -8.7066    2.3258   -2.5887 H   0  0  0  0  0  0
   -7.8877    2.7127   -0.2882 H   0  0  0  0  0  0
   -5.4772    2.9651    0.1301 H   0  0  0  0  0  0
  1  2  1  0  0  0
  1 34  1  0  0  0
  1 35  1  0  0  0
  1 36  1  0  0  0
  2  3  1  0  0  0
  3 10  1  0  0  0
  3  4  2  0  0  0
  4  5  1  0  0  0
  4 37  1  0  0  0
  5  6  1  0  0  0
  5  8  2  0  0  0
  6  7  1  0  0  0
  7 38  1  0  0  0
  7 39  1  0  0  0
  7 40  1  0  0  0
  8  9  1  0  0  0
  8 20  1  0  0  0
  9 10  2  0  0  0
  9 41  1  0  0  0
 10 11  1  0  0  0
 11 12  1  0  0  0
 11 42  1  0  0  0
 12 13  2  0  0  0
 12 14  1  0  0  0
 14 15  1  0  0  0
 14 43  1  0  0  0
 14 44  1  0  0  0
 15 16  1  0  0  0
 16 17  1  0  0  0
 16 45  1  0  0  0
 16 46  1  0  0  0
 17 18  2  0  0  0
 17 19  1  0  0  0
 19 47  1  0  0  0
 20 21  2  0  0  0
 20 22  2  0  0  0
 20 23  1  0  0  0
 23 33  1  0  0  0
 23 24  1  0  0  0
 24 25  1  0  0  0
 24 26  1  0  0  0
 24 48  1  0  0  0
 25 49  1  0  0  0
 25 50  1  0  0  0
 25 51  1  0  0  0
 26 27  1  0  0  0
 26 52  1  0  0  0
 26 53  1  0  0  0
 27 28  1  0  0  0
 27 54  1  0  0  0
 27 55  1  0  0  0
 28 33  2  0  0  0
 28 29  1  0  0  0
 29 30  2  0  0  0
 29 56  1  0  0  0
 30 31  1  0  0  0
 30 57  1  0  0  0
 31 32  2  0  0  0
 31 58  1  0  0  0
 32 33  1  0  0  0
 32 59  1  0  0  0
M  END
> <r_f3d_energy>
0

> <i_f3d_flags>
0

$$$$
